40
Properties=species:S:1:pos:R:3:forces:R:3 Energy=0.0 kcal/mol=T energy=-0.8490627863720848 pbc="F F F"
C        0.52687834       1.93221439      -0.38209719       0.00002260       0.00001016      -0.00002486
O       -0.03797202       1.37590765       0.42073904      -0.00002462      -0.00003390       0.00000519
C        0.09782153      -2.12143315      -0.08445720       0.00000295       0.00003480       0.00000490
O       -0.66973644      -2.91397391       0.14930058       0.00000510      -0.00000324      -0.00001318
C       -0.14038692      -0.54093539       3.36510612       0.00002400      -0.00002112       0.00000608
O       -1.06147745       0.10321908       3.45848899      -0.00003227       0.00000298      -0.00002060
C        1.08214643      -4.02683836       3.04076796       0.00002759       0.00001655       0.00002708
O        1.55217059      -3.60984966       3.97751933      -0.00002438       0.00000072       0.00002109
C        2.99471863      -0.19354354       1.67567032       0.00001908      -0.00000351       0.00001222
O        3.04377867      -1.30677305       1.85022041       0.00000073       0.00001715      -0.00000429
C        0.28550789       9.44403139       2.83604036       0.00003016       0.00005401      -0.00000064
O        0.33495624       8.44236776       2.31890419      -0.00003787      -0.00007312       0.00000344
C        1.05634487       5.61837072       0.45941244      -0.00004403      -0.00001943       0.00000350
O       -0.03572867       5.37984671       0.61221774       0.00004031      -0.00002315       0.00001046
C       -0.71629815       5.40309343       5.00785932       0.00006855      -0.00001212       0.00003478
O       -0.59673939       6.50037917       4.77511270      -0.00007619       0.00004992      -0.00002556
C        1.55458471       2.65104640       3.80226363      -0.00002434      -0.00000506       0.00000426
O        1.52361285       3.14099906       2.78663690       0.00002941       0.00000545      -0.00000274
C        3.35354894       6.79415613       3.32733853       0.00003472       0.00003903      -0.00002728
O        2.51780684       6.12505072       3.68362773      -0.00005321      -0.00003654       0.00000098
C       -6.23176630       2.62262622       1.34288648       0.00004244       0.00003625       0.00003544
O       -6.20509820       1.83588571       2.15074331      -0.00002910      -0.00002526      -0.00000724
C       -6.36562837      -1.54303484       1.23863382      -0.00004097       0.00000695       0.00000244
O       -6.65019630      -1.82379274       2.29337868       0.00000151      -0.00002764      -0.00002735
C       -4.41862699       0.27573414       4.84445496       0.00001880      -0.00000311      -0.00003015
O       -4.26931149      -0.19811791       3.83144517       0.00000460      -0.00001160       0.00001610
C       -3.34660842      -3.47912739       2.49258460      -0.00001579      -0.00003568       0.00003460
O       -2.48124391      -2.94723416       2.98343416      -0.00000955       0.00002727      -0.00004873
C       -3.35861254       0.50690799       0.50291985       0.00002120       0.00006298       0.00000539
O       -2.86373565      -0.48289707       0.72028318      -0.00002698      -0.00003613      -0.00002111
C       -6.32551818       6.08488802       0.07748979      -0.00000051      -0.00001612       0.00000904
O       -5.96880099       6.10228448       1.14769110       0.00003356       0.00000482      -0.00000394
C       -2.73390060       3.76927165      -1.05330032      -0.00000628      -0.00000492       0.00000023
O       -3.27108957       4.34876679      -0.24811124      -0.00001350       0.00000801       0.00001294
C       -5.09691918       5.41081919       4.60720336      -0.00000037      -0.00001137      -0.00001342
O       -5.72942767       4.60452800       4.13571665      -0.00000672       0.00000011       0.00003191
C       -2.78757650       3.06575418       3.02490266       0.00000464      -0.00000061      -0.00000559
O       -1.77735373       3.17718112       2.53586057       0.00002280      -0.00000539      -0.00000125
C       -2.83778111       7.31675009       1.58279589       0.00001151       0.00000901       0.00000213
O       -2.68549777       6.44155097       2.27788344       0.00000043       0.00002287      -0.00000631
