40
Properties=species:S:1:pos:R:3:forces:R:3 Energy=0.0 kcal/mol=T energy=-0.9007440669877167 pbc="F F F"
C        6.03364736      -0.55624860       2.32116956      -0.00000622      -0.00000703       0.00000470
O        6.76580521       0.29878572       2.24673301       0.00001225       0.00001311      -0.00000558
C       10.11700598      -0.22947771       1.32105115      -0.00000316      -0.00001772      -0.00001005
O       10.34418923       0.57560624       2.07810176       0.00000370       0.00001933       0.00001208
C        9.02662236      -0.95665222       5.66413843       0.00000402       0.00000067       0.00000477
O        8.83824787      -1.01643147       4.55367500      -0.00000205      -0.00000241      -0.00000749
C       12.00117959       1.16598840       5.10363394       0.00000560      -0.00000444      -0.00000248
O       11.70555268       2.25383893       5.06012070      -0.00000613       0.00000590       0.00000006
C        8.40238442       3.12952507       3.42839629      -0.00000163      -0.00001120       0.00000481
O        8.56178606       2.34654148       4.22452360      -0.00000689       0.00000469      -0.00000824
C        7.07317867       6.54511974       4.87820454       0.00000296      -0.00000142      -0.00000041
O        6.52438950       5.56100291       4.93299154      -0.00000224      -0.00000065       0.00000192
C        4.66034205       3.80226560       2.57919636      -0.00000211      -0.00000246       0.00000581
O        4.87672045       2.93076756       3.26245561      -0.00000029      -0.00000227       0.00000067
C        9.40433749       2.12554514       7.93024555      -0.00000835      -0.00000325      -0.00000690
O        8.37045377       2.19832499       7.48549267       0.00000884      -0.00000029       0.00000332
C        5.89115223       0.73779756       5.68212947       0.00000263      -0.00000825      -0.00000421
O        5.47584816       1.61332632       6.25828178       0.00000038       0.00001448       0.00000485
C       10.79085103       5.49570437       6.36421375       0.00000753       0.00000806       0.00000404
O        9.91904333       4.92852836       5.92695848      -0.00001412      -0.00000997      -0.00000557
C        1.97104598       1.27509789       4.36862796      -0.00000901      -0.00000179      -0.00001849
O        2.39529958       1.02702233       5.38421275       0.00001579       0.00001066       0.00001559
C        4.82519680      -2.76967854       5.22503377       0.00001129       0.00000663       0.00000192
O        5.94722528      -2.68441269       5.30495782      -0.00001022      -0.00000502       0.00000337
C        2.75341596      -0.72673816       8.38544002      -0.00001212       0.00000623       0.00000400
O        3.76803718      -0.80864746       7.89913462       0.00001583      -0.00000430      -0.00000752
C        6.99888528      -1.75912724       8.69778708      -0.00000312      -0.00002721       0.00001376
O        7.06617481      -0.63315685       8.67379530       0.00000115       0.00002805      -0.00001086
C        5.73188582       2.52814780       9.76375753      -0.00001907       0.00000043      -0.00001135
O        4.89625629       1.83560099       9.45653911       0.00001096      -0.00000649       0.00000951
C        4.32915638       8.55740816       7.71991436      -0.00000929       0.00001428       0.00001535
O        4.58399619       7.68883202       7.04634055       0.00001344      -0.00001475      -0.00001389
C        3.57923483       4.36757672       6.28016019      -0.00000687      -0.00000385       0.00000422
O        4.34290513       4.43928250       7.10683223       0.00000790      -0.00000038       0.00000057
C        3.47755767       5.34972775      10.66382233       0.00000161      -0.00000065       0.00000201
O        3.17900759       5.87922519       9.71340207      -0.00000257      -0.00000253      -0.00000657
C        0.82209296       2.43217621       8.31177039      -0.00004216      -0.00001548      -0.00002065
O        1.76170839       2.88569761       8.74131827       0.00004637       0.00002287       0.00001882
C        7.47012835       5.51335876       8.49011021      -0.00000684       0.00000536       0.00000267
O        6.57889609       5.93882861       9.03489824       0.00000224      -0.00000694       0.00000143
