100
Properties=species:S:1:pos:R:3:momenta:R:3:forces:R:3 Energy=0.0 kcal/mol=T energy=-2.7417167134655154 pbc="F F F"
C        0.51703895      -0.27209060       1.56484243       0.15243303      -0.20797759       0.22251322       0.00003597       0.00002511      -0.00002166
O       -0.20417253      -0.45110772       2.41325985       0.24494084      -0.16874440       0.10089112      -0.00003684      -0.00000096       0.00004827
C        0.52900268      -8.06454717       2.05324472       0.29415799       0.32194599      -0.13664379      -0.00001738      -0.00001460      -0.00001906
O        1.44550095      -8.00970887       2.70835654      -0.15272990       0.12802735      -0.03545258       0.00000253      -0.00000083       0.00001942
C        1.64106353      -1.58197831       5.53837232      -0.04039854      -0.21003617      -0.16947124       0.00002008       0.00001564      -0.00000629
O        2.13536332      -2.58777317       5.41319338       0.35218852      -0.13061239       0.14061522       0.00001864      -0.00000429      -0.00002440
C       -3.66860942      -8.75784261       2.54088663       0.20781320      -0.00443286      -0.11932678       0.00001668       0.00002621       0.00003185
O       -2.84937033      -8.30177943       3.16872151       0.11257570       0.03116195      -0.62615033      -0.00001436      -0.00000009      -0.00001482
C        1.59395166      -4.44223528       1.82717335      -0.11014916      -0.35205749      -0.27171798       0.00000578      -0.00001782      -0.00000920
O        1.46071280      -3.45049678       2.34814787       0.29666560       0.19666273       0.29527213       0.00001394       0.00002404      -0.00000963
C        2.20945345       5.35772285       2.97638914      -0.24953979       0.12431024       0.23284833      -0.00002220       0.00001630       0.00002704
O        1.49341397       6.13919854       3.36231824      -0.15569369       0.08180360      -0.33026668       0.00003168      -0.00000904      -0.00001405
C       -0.61210403      -2.73698071      -0.70734331       0.45440788      -0.24794874      -0.08462642      -0.00002165       0.00000275      -0.00002518
O       -1.14928900      -1.94120383      -1.29909113       0.23631058      -0.34305273       0.07474819      -0.00002593      -0.00000972       0.00001969
C        2.55688218       1.98685713       4.56614493       0.25639109       0.06884236      -0.05690038      -0.00000804      -0.00002407      -0.00003492
O        1.78520128       1.88429576       3.75038033       0.20823387      -0.03661808      -0.12457769       0.00002704       0.00002287       0.00003035
C        4.32916206      -1.24597081       2.17977187      -0.08179163      -0.39709945       0.07749978       0.00001055       0.00003327      -0.00001322
O        3.76460409      -0.72613147       3.00668116       0.07184141      -0.02522854       0.03766744      -0.00001189      -0.00001996       0.00001002
C        2.37205238       2.62251835       0.16014474       0.29283027      -0.34731329      -0.25282425      -0.00001719       0.00000197      -0.00001091
O        3.12551469       2.22544157       0.90020599       0.23503770       0.52797653      -0.38877069      -0.00000855       0.00001083      -0.00000062
C       -3.24375991       0.94756714      -0.59977567       0.14084043       0.35165511      -0.56913787       0.00000193       0.00001212       0.00002236
O       -2.24761289       1.00108959      -0.07304840      -0.41780755       0.21722191      -0.22601889      -0.00003279       0.00001292      -0.00001864
C       -4.98984305      -4.82231668       4.49990429       0.05638092      -0.16698121      -0.35532306       0.00003947      -0.00001642      -0.00000905
O       -4.48288857      -5.32213044       3.62464170       0.15026573       0.04169643      -0.11993888      -0.00002197       0.00003935       0.00003578
C       -4.74112098      -2.64874752       1.16185905      -0.60907333       0.38460916       0.05881162       0.00003722      -0.00000213       0.00003525
O       -3.70077198      -2.50999706       0.74856810      -0.17248531       0.29426362       0.36255746       0.00000823      -0.00001659      -0.00001302
C       -4.35783388      -1.19377169       6.41013390      -0.21464814      -0.11195836       0.51786528       0.00002613      -0.00005096      -0.00003566
O       -4.22871087      -0.21885031       6.96243131      -0.59909270       0.12303705      -0.05395571      -0.00000785       0.00004222       0.00001650
C       -7.45452128      -2.30097241       3.80561275      -0.09899652       0.24290931      -0.05718818      -0.00003225      -0.00005424       0.00001590
O       -6.74996254      -1.41976639       3.79375030      -0.60430252       0.04974659      -0.01925994       0.00004616      -0.00000155       0.00001680
C       -5.93141048       2.38375453       8.71445356      -0.60860618      -0.07551800       0.01530694      -0.00003618       0.00000165      -0.00002182
O       -6.30937336       1.33330715       8.87695646       0.28385187      -0.09061949       0.26037470       0.00004900       0.00001613      -0.00000149
C       -7.30323068       0.50244479       0.84000404       0.42618965      -0.25212978      -0.25161575      -0.00003194      -0.00003086      -0.00001315
O       -6.56332200       1.30005687       1.13860659       0.15570628       0.46874994      -0.02881524       0.00003796       0.00004272       0.00000313
C       -5.29849251       4.44922254       2.07073182       0.18680916      -0.56005517       0.19003893       0.00000373       0.00001484       0.00000796
O       -4.42495070       3.73645166       2.11519936      -0.19929806       0.40540516      -0.05357500      -0.00004109      -0.00000526       0.00000312
C       -3.85550981       0.29153046       2.81790591       0.36824237       0.19252277       0.04562335      -0.00000128      -0.00001655       0.00000140
O       -4.28581430       0.87899471       3.67884681       0.12557622      -0.02814224       0.41086105      -0.00000188      -0.00000883      -0.00001960
C       -0.90695971       3.49322713       2.15414401       0.16465321       0.18157401       0.07685854      -0.00006502      -0.00002841       0.00002421
O       -1.38520239       2.72307759       2.82545831      -0.23739667       0.02022091      -0.25042734       0.00007683       0.00001841      -0.00002220
C        1.57299250       0.91590164       8.36987344      -0.08534934      -0.08028017       0.26755664      -0.00000594      -0.00000495      -0.00000213
O        1.72338818       1.91916782       7.87760603      -0.04939389       0.10458896      -0.34478571      -0.00000161      -0.00000007      -0.00001703
C        1.32890839      -5.07210965       8.51115604      -0.07165386      -0.21872323       0.18902733       0.00001516       0.00002130      -0.00002416
O        0.83412318      -4.72505000       7.55871792      -0.50305859       0.22134130       0.30395588       0.00001247      -0.00000205      -0.00001831
C        0.44408294       0.05697491      11.77697559       0.15512177       0.01602254       0.08023154       0.00002003       0.00000884       0.00000916
O       -0.54338188      -0.06881933      11.24571393      -0.22503746      -0.49360941       0.01142841      -0.00002031      -0.00000826       0.00000493
C        3.40305927      -1.87647361       9.61750696       0.64386712      -0.05277011      -0.17009027      -0.00000356      -0.00000572       0.00004676
O        3.17380756      -2.21491452       8.56586192       0.09123916      -0.50987239       0.35680136       0.00000468      -0.00002274      -0.00002958
C        5.46354942      -3.55515713       6.00793911       0.12054617       0.07451460      -0.02473775      -0.00003983       0.00002524      -0.00003763
O        5.33824473      -2.62970815       5.37494411       0.05389179      -0.01694649      -0.32755108       0.00001498      -0.00000518       0.00002990
C        3.59243569       4.75806216       6.54157666      -0.28009384       0.02982912       0.07251614       0.00001758      -0.00001587      -0.00001561
O        4.18081020       3.97856755       7.10590245       0.08666457      -0.05981460       0.05046344      -0.00000857      -0.00000453      -0.00000238
C        5.74082794       3.05965332       3.30023910      -0.03538639      -0.11524654       0.22361063      -0.00002895      -0.00004602       0.00006774
O        5.76137615       1.98695682       2.95174820      -0.53114085       0.03800478       0.11359596       0.00003967       0.00001792      -0.00002898
C        0.94807114       4.40797533      10.11108579      -0.05289771       0.10674079      -0.31497772      -0.00000654      -0.00003543       0.00006836
O        1.64588736       4.99950734       9.45096883      -0.58955411       0.46836664       0.14139573       0.00000737       0.00002470      -0.00002542
C        4.84839604       0.41848927       6.85084560      -0.09571286      -0.09195891      -0.08051231       0.00005843      -0.00001171      -0.00003026
O        5.49672568       0.89684217       6.06196115       0.55556262      -0.23207061      -0.02289126      -0.00002886       0.00000379       0.00001126
C        5.06609401       2.16031420      10.14758906       0.01505488       0.00581901      -0.07768603       0.00000274       0.00000001       0.00003927
O        4.00834885       2.55289761      10.14368863       0.17843836      -0.02255339       0.25834674      -0.00001064       0.00000504      -0.00003445
C       -2.19126804       6.51926052       8.67777487       0.03095260      -0.10699081      -0.03684352       0.00000320      -0.00002384       0.00001085
O       -2.57704190       6.20943706       7.66375593       0.74115431      -0.01735572      -0.07632037      -0.00001189       0.00000844       0.00002617
C       -7.47620260      -1.90971982       8.15180895      -0.02760027      -0.49495148      -0.04003968      -0.00000905      -0.00000973       0.00001810
O       -7.75062656      -1.35547430       7.20809325       0.05875333      -0.17707067      -0.01614845       0.00000893       0.00002253      -0.00005907
C       -7.45788721       1.79240470       4.65015705       0.01656909       0.39925342       0.43176180      -0.00000070      -0.00000923      -0.00001692
O       -6.90050879       1.47829711       5.57921694       0.15368091      -0.32133882      -0.13983761       0.00001316       0.00001934       0.00000286
C       -3.77017929      -1.40650315      10.30467155      -0.05624062      -0.27561870      -0.04680728      -0.00001846       0.00004402      -0.00001315
O       -3.84532398      -0.28379180      10.38107364      -0.10281880       0.25164937       0.26198015       0.00000222      -0.00002579      -0.00000268
C       -0.73469388       0.98477391       5.63770499       0.28972699       0.17647384       0.19861895      -0.00001211      -0.00004023       0.00001834
O       -1.61713712       0.38931022       5.26720273      -0.05708179       0.25829988      -0.49242095       0.00000734       0.00000225      -0.00000424
C       -2.27748757       6.35377497       4.02919590       0.52798666      -0.01475845       0.36995996       0.00000862       0.00002814      -0.00000735
O       -1.70396447       7.16976697       4.55569446      -0.08493646      -0.25146873      -0.05722689      -0.00000999      -0.00003533       0.00000042
C       -3.49701393       3.30834971       5.91978702       0.06700241      -0.48152339      -0.15868812       0.00000315      -0.00001153      -0.00000939
O       -4.47338903       3.67311492       5.48950728       0.08397737      -0.40161944       0.10605894       0.00001390       0.00001325      -0.00001062
C        1.53378775       8.04896494       6.52497448       0.08907466       0.08557196       0.16038034      -0.00002145       0.00000649      -0.00000584
O        0.75936387       7.29317364       6.84417610       0.15844570       0.11537228      -0.34254248       0.00000367      -0.00000204       0.00000669
C       -2.33594073       2.72127947       9.31612400       0.16596649      -0.37276542      -0.07961838      -0.00000880      -0.00001361      -0.00001196
O       -1.69785645       1.92498644       8.83499765       0.03168244       0.33906591       0.12645425      -0.00000832       0.00000386      -0.00002336
C        0.03681788       4.24628771       5.78351763      -0.18797490       0.15788352       0.05993368      -0.00001189       0.00000678      -0.00003164
O       -0.23032359       4.19111566       6.87746438      -0.15316045       0.08393567      -0.29632663       0.00000774       0.00001633       0.00004153
C       -0.69757508      -6.29531512       5.02449971       0.23252231       0.30669973      -0.40508926      -0.00000083       0.00000013       0.00000569
O       -1.74213796      -6.02216074       5.35049820      -0.19403518      -0.12529031       0.15890320       0.00000727      -0.00001508       0.00002291
C       -0.52063103     -10.06213715       5.25109279      -0.45693562      -0.07800349       0.13852142       0.00000446       0.00000183      -0.00000701
O       -1.21856531      -9.50984632       5.94461320      -0.39788206      -0.30530606       0.32256103      -0.00002166       0.00000303       0.00002028
C       -4.55068251      -8.08949075       6.17084909      -0.41235216       0.16533669       0.37582809      -0.00001449      -0.00000761       0.00000425
O       -4.11298136      -8.15895395       7.20786212      -0.41105076       0.37151790      -0.02235900      -0.00001349       0.00001790       0.00001608
C       -1.31130699      -7.99888045       9.28425603      -0.16195930      -0.27835790       0.25488100      -0.00001209       0.00000669      -0.00002587
O       -1.29003282      -7.20425014       8.48349022      -0.28477573      -0.14144492      -0.73758737       0.00002636      -0.00002754       0.00000556
C       -1.30258554      -4.37322568      11.02247499       0.28427392       0.44534536       0.07385587      -0.00000233      -0.00003142       0.00001211
O       -0.96739139      -3.41809781      11.52022505       0.20121944      -0.08264514       0.42923744      -0.00001602       0.00004232      -0.00000027
C       -1.47039591      -2.81802724       4.47873584      -0.51932783       0.11886433       0.43406859      -0.00002696      -0.00000870      -0.00007354
O       -2.37740153      -2.66719405       3.82555178       0.17929028      -0.10004773       0.10429010       0.00002833      -0.00001912       0.00002944
C       -2.16652793      -5.65116126       0.94831681      -0.17054629      -0.67179120       0.20174857       0.00001807       0.00004182       0.00004495
O       -1.70143481      -5.18554064       1.86476959       0.47244604       0.27032796       0.22975139      -0.00002650      -0.00002590      -0.00001639
C       -1.06296060      -1.44966163       8.03724871      -0.07524830       0.04127348      -0.05595871       0.00003930      -0.00001770      -0.00000881
O       -0.27362324      -1.99855683       8.62672389      -0.31370936       0.44004785       0.23916021      -0.00002399       0.00000145      -0.00001740
C       -3.81536240      -4.73910137       7.99322499       0.07717727      -0.06027476      -0.80102470      -0.00002065       0.00001819      -0.00000581
O       -2.84425516      -4.18247655       7.85256637      -0.19414667       0.14908574      -0.05370412       0.00000142       0.00000662       0.00001478
C        2.96231281      -6.40392978       5.45548946      -0.27749555       0.46362565       0.08441665      -0.00000643       0.00002691       0.00001498
O        3.04945703      -5.70366137       4.57549811       0.37393452       0.24979400      -0.14789442       0.00000936      -0.00000438       0.00001347
