126
Energy = 0.00 kcal/mol
C       -5.27185  -5.27185  -5.27185
O       -5.92310  -5.92310  -5.92310
C       -5.27185  -5.27185   0.37215
O       -5.92310  -5.92310  -0.27910
C       -5.27185  -5.27185   6.01615
O       -5.92310  -5.92310   5.36490
C       -5.27185   0.37215  -5.27185
O       -5.92310  -0.27910  -5.92310
C       -5.27185   0.37215   0.37215
O       -5.92310  -0.27910  -0.27910
C       -5.27185   0.37215   6.01615
O       -5.92310  -0.27910   5.36490
C       -5.27185   6.01615  -5.27185
O       -5.92310   5.36490  -5.92310
C       -5.27185   6.01615   0.37215
O       -5.92310   5.36490  -0.27910
C       -5.27185   6.01615   6.01615
O       -5.92310   5.36490   5.36490
C        0.37215  -5.27185  -5.27185
O       -0.27910  -5.92310  -5.92310
C        0.37215  -5.27185   0.37215
O       -0.27910  -5.92310  -0.27910
C        0.37215  -5.27185   6.01615
O       -0.27910  -5.92310   5.36490
C        0.37215   0.37215  -5.27185
O       -0.27910  -0.27910  -5.92310
C        0.37215   0.37215   0.37215
O       -0.27910  -0.27910  -0.27910
C        0.37215   0.37215   6.01615
O       -0.27910  -0.27910   5.36490
C        0.37215   6.01615  -5.27185
O       -0.27910   5.36490  -5.92310
C        0.37215   6.01615   0.37215
O       -0.27910   5.36490  -0.27910
C        0.37215   6.01615   6.01615
O       -0.27910   5.36490   5.36490
C        6.01615  -5.27185  -5.27185
O        5.36490  -5.92310  -5.92310
C        6.01615  -5.27185   0.37215
O        5.36490  -5.92310  -0.27910
C        6.01615  -5.27185   6.01615
O        5.36490  -5.92310   5.36490
C        6.01615   0.37215  -5.27185
O        5.36490  -0.27910  -5.92310
C        6.01615   0.37215   0.37215
O        5.36490  -0.27910  -0.27910
C        6.01615   0.37215   6.01615
O        5.36490  -0.27910   5.36490
C        6.01615   6.01615  -5.27185
O        5.36490   5.36490  -5.92310
C        6.01615   6.01615   0.37215
O        5.36490   5.36490  -0.27910
C        6.01615   6.01615   6.01615
O        5.36490   5.36490   5.36490
C       -2.44985  -3.19416  -6.01616
O       -3.10110  -2.54291  -5.36491
C       -2.44985   2.44984  -6.01616
O       -3.10110   3.10109  -5.36491
C        3.19415  -3.19416  -6.01616
O        2.54290  -2.54291  -5.36491
C        3.19415   2.44984  -6.01616
O        2.54290   3.10109  -5.36491
C       -2.44985  -3.19416  -0.37216
O       -3.10110  -2.54291   0.27909
C       -2.44985   2.44984  -0.37216
O       -3.10110   3.10109   0.27909
C        3.19415  -3.19416  -0.37216
O        2.54290  -2.54291   0.27909
C        3.19415   2.44984  -0.37216
O        2.54290   3.10109   0.27909
C       -2.44985  -3.19416   5.27184
O       -3.10110  -2.54291   5.92309
C       -2.44985   2.44984   5.27184
O       -3.10110   3.10109   5.92309
C        3.19415  -3.19416   5.27184
O        2.54290  -2.54291   5.92309
C        3.19415   2.44984   5.27184
O        2.54290   3.10109   5.92309
C       -6.01616  -2.44985  -3.19416
O       -5.36491  -3.10110  -2.54291
C       -6.01616  -2.44985   2.44984
O       -5.36491  -3.10110   3.10109
C       -6.01616   3.19415  -3.19416
O       -5.36491   2.54290  -2.54291
C       -6.01616   3.19415   2.44984
O       -5.36491   2.54290   3.10109
C       -0.37216  -2.44985  -3.19416
O        0.27909  -3.10110  -2.54291
C       -0.37216  -2.44985   2.44984
O        0.27909  -3.10110   3.10109
C       -0.37216   3.19415  -3.19416
O        0.27909   2.54290  -2.54291
C       -0.37216   3.19415   2.44984
O        0.27909   2.54290   3.10109
C        5.27184  -2.44985  -3.19416
O        5.92309  -3.10110  -2.54291
C        5.27184  -2.44985   2.44984
O        5.92309  -3.10110   3.10109
C        5.27184   3.19415  -3.19416
O        5.92309   2.54290  -2.54291
C        5.27184   3.19415   2.44984
O        5.92309   2.54290   3.10109
C       -3.19416  -6.01616  -2.44985
O       -2.54291  -5.36491  -3.10110
C       -3.19416  -6.01616   3.19415
O       -2.54291  -5.36491   2.54290
C        2.44984  -6.01616  -2.44985
O        3.10109  -5.36491  -3.10110
C        2.44984  -6.01616   3.19415
O        3.10109  -5.36491   2.54290
C       -3.19416  -0.37216  -2.44985
O       -2.54291   0.27909  -3.10110
C       -3.19416  -0.37216   3.19415
O       -2.54291   0.27909   2.54290
C        2.44984  -0.37216  -2.44985
O        3.10109   0.27909  -3.10110
C        2.44984  -0.37216   3.19415
O        3.10109   0.27909   2.54290
C       -3.19416   5.27184  -2.44985
O       -2.54291   5.92309  -3.10110
C       -3.19416   5.27184   3.19415
O       -2.54291   5.92309   2.54290
C        2.44984   5.27184  -2.44985
O        3.10109   5.92309  -3.10110
C        2.44984   5.27184   3.19415
O        3.10109   5.92309   2.54290
