34
Energy = 0.00 kcal/mol
C    -3.942865 -5.395014 -3.858079
O    -4.148977 -4.993444 -4.887683
C    -4.760625 -2.986259 4.073590
O    -5.521043 -2.210625 4.358828
C    -3.270830 -5.233443 -0.582311
O    -4.344629 -5.365304 -0.273360
C    -5.607131 -6.128924 2.761971
O    -6.573618 -5.568700 2.638035
C    -2.617625 -4.952789 2.653493
O    -2.259462 -5.485973 3.576845
C    -1.145204 -3.089244 -2.183133
O    -1.002998 -3.925245 -2.926275
C    0.293130 -7.710401 3.093527
O    -0.241373 -8.392684 3.809740
O    -3.815341 -8.526940 4.514856
C    -3.468719 -8.524510 3.446712
C    -5.865567 -8.083400 0.142686
O    -5.474388 -8.733559 -0.684141
O    0.596633 -5.037201 0.039281
C    -0.227916 -5.569703 0.589350
C    -2.321749 -8.187235 0.368043
O    -1.492897 -8.918085 0.568279
O    -4.272288 -6.014121 6.806321
C    -4.802549 -5.775620 5.844061
C    -6.344465 -2.972038 0.882681
O    -7.268591 -3.243400 0.297205
O    -7.372167 -5.914444 -1.882917
C    -6.757975 -5.077971 -2.311033
C    -4.305940 -2.488733 -2.285961
O    -5.080668 -1.795862 -1.851222
O    -1.444362 -7.501253 -3.500507
C    -1.141020 -7.186776 -2.463305
C    -2.995490 -2.218028 0.820112
O    -2.765414 -1.633037 1.751935

