34
Properties=species:S:1:pos:R:3 Energy=0.0 kcal/mol=T pbc="F F F"
C       -3.94933700      -5.21069800      -3.93983200
O       -3.80954700      -4.91453400      -5.01438400
C       -4.81505000      -2.99686200       4.02993700
O       -5.68848000      -2.36809300       4.34698300
C       -3.40081800      -5.27084300      -0.70055700
O       -4.47854400      -5.35816200      -0.38397700
C       -5.60608300      -6.47270800       2.63385300
O       -6.35191200      -5.63459600       2.55805500
C       -2.68202000      -5.11049800       2.71882700
O       -2.27192400      -5.54575200       3.67268100
C       -0.84259500      -3.17839400      -1.96548200
O       -1.13519800      -3.72650500      -2.90095400
C        0.22767300      -7.66335900       3.21624100
O        0.11641000      -8.46046000       4.00045200
C       -3.26200100      -8.62021800       3.95015400
O       -3.76623000      -8.75146600       4.94601100
C       -6.01509800      -8.10067600      -0.18720300
O       -5.45465400      -8.72833500      -0.93133100
C       -0.40335500      -5.65083800       0.52553700
O        0.46593300      -5.25618500      -0.06589400
C       -2.53337400      -8.16401900       0.74611700
O       -1.76196400      -8.98034900       0.79643100
C       -4.79533000      -5.72404200       5.77536400
O       -4.25587600      -5.70612500       6.76127000
C       -6.35279400      -2.85141700       0.91430200
O       -7.32420800      -3.17850300       0.44759200
C       -6.87165900      -4.93777400      -2.39705400
O       -7.37375600      -5.91536400      -2.16421800
C       -4.36889400      -2.33799200      -2.21485300
O       -5.22760800      -1.69359900      -1.87215300
C       -1.42362400      -7.31386600      -2.32168300
O       -1.49498600      -7.37439300      -3.44313900
C       -2.95029400      -2.27183000       0.64416600
O       -2.59380600      -1.75546300       1.57741300
