34
Properties=species:S:1:pos:R:3 Energy=0.0 kcal/mol=T pbc="F F F"
C       -3.94286500      -5.39501400      -3.85807900
O       -4.14897700      -4.99344400      -4.88768300
C       -4.76062500      -2.98625900       4.07359000
O       -5.52104300      -2.21062500       4.35882800
C       -3.27083000      -5.23344300      -0.58231100
O       -4.34462900      -5.36530400      -0.27336000
C       -5.60713100      -6.12892400       2.76197100
O       -6.57361800      -5.56870000       2.63803500
C       -2.61762500      -4.95278900       2.65349300
O       -2.25946200      -5.48597300       3.57684500
C       -1.14520400      -3.08924400      -2.18313300
O       -1.00299800      -3.92524500      -2.92627500
C        0.29313000      -7.71040100       3.09352700
O       -0.24137300      -8.39268400       3.80974000
C       -3.46871900      -8.52451000       3.44671200
O       -3.81534100      -8.52694000       4.51485600
C       -5.86556700      -8.08340000       0.14268600
O       -5.47438800      -8.73355900      -0.68414100
C       -0.22791600      -5.56970300       0.58935000
O        0.59663300      -5.03720100       0.03928100
C       -2.32174900      -8.18723500       0.36804300
O       -1.49289700      -8.91808500       0.56827900
C       -4.80254900      -5.77562000       5.84406100
O       -4.27228800      -6.01412100       6.80632100
C       -6.34446500      -2.97203800       0.88268100
O       -7.26859100      -3.24340000       0.29720500
C       -6.75797500      -5.07797100      -2.31103300
O       -7.37216700      -5.91444400      -1.88291700
C       -4.30594000      -2.48873300      -2.28596100
O       -5.08066800      -1.79586200      -1.85122200
C       -1.14102000      -7.18677600      -2.46330500
O       -1.44436200      -7.50125300      -3.50050700
C       -2.99549000      -2.21802800       0.82011200
O       -2.76541400      -1.63303700       1.75193500
