34
Energy = 0.00 kcal/mol
C    -3.949337 -5.210698 -3.939832
O    -3.809547 -4.914534 -5.014384
C    -4.815050 -2.996862 4.029937
O    -5.688480 -2.368093 4.346983
C    -3.400818 -5.270843 -0.700557
O    -4.478544 -5.358162 -0.383977
C    -5.606083 -6.472708 2.633853
O    -6.351912 -5.634596 2.558055
C    -2.682020 -5.110498 2.718827
O    -2.271924 -5.545752 3.672681
C    -0.842595 -3.178394 -1.965482
O    -1.135198 -3.726505 -2.900954
C    0.227673 -7.663359 3.216241
O    0.116410 -8.460460 4.000452
O    -3.766230 -8.751466 4.946011
C    -3.262001 -8.620218 3.950154
C    -6.015098 -8.100676 -0.187203
O    -5.454654 -8.728335 -0.931331
O    0.465933 -5.256185 -0.065894
C    -0.403355 -5.650838 0.525537
C    -2.533374 -8.164019 0.746117
O    -1.761964 -8.980349 0.796431
O    -4.255876 -5.706125 6.761270
C    -4.795330 -5.724042 5.775364
C    -6.352794 -2.851417 0.914302
O    -7.324208 -3.178503 0.447592
O    -7.373756 -5.915364 -2.164218
C    -6.871659 -4.937774 -2.397054
C    -4.368894 -2.337992 -2.214853
O    -5.227608 -1.693599 -1.872153
O    -1.494986 -7.374393 -3.443139
C    -1.423624 -7.313866 -2.321683
C    -2.950294 -2.271830 0.644166
O    -2.593806 -1.755463 1.577413
