120
Energy = 0.00 kcal/mol
C    -1.763151 -3.756558 1.494661
O    -2.293052 -3.060975 2.206377
C    -4.379553 0.816423 4.237032
O    -4.653141 -0.079833 4.861433
C    -1.706164 -0.769341 6.740162
O    -1.027844 -1.661988 6.817732
C    1.929040 -3.527491 2.430951
O    2.425055 -3.242466 1.459955
C    4.826127 3.270891 1.702185
O    5.893469 2.930051 1.790843
C    3.180506 -1.901986 -0.956533
O    3.899509 -1.529559 -1.739907
C    1.486174 2.106630 6.149327
O    1.242917 1.050288 5.831440
C    -1.994338 0.917640 -1.559385
O    -1.494115 1.415650 -2.441045
C    -7.371646 -0.527552 -0.405326
O    -7.367244 0.563369 -0.716550
C    2.291661 -1.880507 5.866675
O    2.622238 -2.931861 5.613760
C    3.429569 -5.997265 4.311883
O    2.433714 -6.456721 4.583169
C    -2.628430 -2.683239 -2.156051
O    -2.333067 -2.096318 -1.237846
C    5.344070 1.745636 4.648381
O    4.648132 0.968487 5.075870
C    2.630474 5.539374 -0.141203
O    3.617759 5.958834 0.223799
C    0.079434 -4.419571 -4.162793
O    -0.815792 -5.025134 -3.842283
C    3.506090 5.730825 4.032738
O    2.631694 5.389950 4.667285
C    0.148513 -0.970939 0.380260
O    0.363885 0.126171 0.519307
C    4.373885 4.512531 -3.151461
O    5.049946 3.719024 -3.589962
C    4.277695 -5.632361 0.641271
O    3.309064 -6.211263 0.632159
C    0.526181 -0.770282 -3.257211
O    0.801865 -1.797574 -2.871994
C    3.841115 0.687739 -4.040336
O    2.919663 1.293381 -4.278733
C    -0.415166 -0.292320 3.758235
O    0.072629 -1.266574 3.468503
C    -0.883412 6.034705 2.771761
O    -1.483645 5.155232 3.153249
C    -6.109221 -3.582116 -2.210686
O    -6.792234 -2.787105 -2.634130
C    -3.371258 2.269510 -5.141283
O    -3.830650 3.250238 -5.460783
C    1.022411 -4.846014 -1.033396
O    0.342635 -4.018408 -0.682967
C    0.114193 3.445597 -3.942687
O    1.157668 3.519449 -3.539184
C    -3.993504 -5.287395 -4.578412
O    -4.088892 -4.169470 -4.450220
C    6.144428 1.615235 -1.311092
O    6.910065 0.785496 -1.303565
C    4.411705 -4.670020 -2.853023
O    3.491194 -5.303409 -2.670426
C    -5.144274 -4.267365 1.295351
O    -5.658267 -3.312248 0.980534
C    -3.745516 -3.172434 4.770105
O    -3.991704 -3.825007 5.655370
C    -2.063337 -6.310204 -0.991686
O    -3.051255 -5.768292 -0.948028
C    1.013077 2.845356 2.321703
O    2.073825 3.156945 2.541203
C    2.847803 -2.074825 -6.011235
O    1.748039 -2.240396 -6.183878
C    -1.821770 -1.908840 -5.999882
O    -1.827233 -0.935804 -5.427771
C    -0.237979 -4.452802 5.481330
O    -0.289723 -4.677721 4.375733
C    7.630161 0.193530 1.867882
O    7.356300 -0.467979 2.739937
C    0.603187 1.212352 -6.588918
O    -0.295827 1.735599 -7.028195
C    3.077005 0.093497 2.243869
O    3.939890 -0.385217 1.697519
C    6.406723 -2.372471 0.021789
O    6.490340 -3.388202 -0.460217
C    -0.911078 4.640781 -0.815240
O    -0.204722 3.854021 -0.421712
C    0.545847 -6.870520 2.376892
O    -0.409223 -6.556004 1.868105
C    0.737797 6.899909 -3.899495
O    1.193907 6.843052 -2.872022
C    -1.324690 8.321562 -0.943490
O    -0.983817 7.735282 -0.040575
C    6.689144 -1.325941 -3.756269
O    5.759126 -1.793214 -4.192023
C    -6.276874 2.527638 1.741957
O    -6.147379 3.293466 2.563819
C    -4.554027 5.831261 1.060337
O    -3.837154 6.487383 0.483661
C    -3.749371 -0.780491 1.201965
O    -4.157162 0.220318 0.883295
C    -4.951930 2.656049 -1.595363
O    -4.157131 3.167320 -0.971117
C    2.051537 1.989397 -1.099733
O    3.068751 2.207411 -0.665802
C    -5.505968 -0.424943 -4.178892
O    -4.656691 -0.141543 -3.493596
C    2.572658 3.920205 -6.576635
O    2.675309 4.966851 -6.157932
C    -2.919438 -6.592218 3.848739
O    -3.445206 -6.423192 2.866468
C    -2.459100 2.643502 1.562542
O    -2.152915 1.811145 2.263086
C    5.469525 -2.694600 3.576899
O    5.383804 -3.638952 2.960877
C    -1.798032 3.269877 5.620666
O    -1.685252 2.175246 5.390480
C    -3.462725 6.239451 -3.225492
O    -2.339940 6.157694 -3.150102
C    -1.139756 5.154117 -7.129627
O    -0.629087 5.465346 -6.170536
C    -6.979517 -1.635653 3.624899
O    -7.082594 -0.760500 2.917266

